40
Lattice="6.24084375568146 0.0002546719995 -0.40513982520031 -0.00027934499945 5.46473665621338 -0.00011169499978 -4.00727358309021 0.00035753499929 8.27303815067019" Properties=species:S:1:pos:R:3:forces:R:3 pbc="T T T"
C        1.59445402       4.49187078       0.97030913       0.00019103       0.00018049      -0.00037718
C        0.63883667       0.97347831       6.89747771      -0.00019103      -0.00018049       0.00037718
C        2.64206695       1.75949853       2.76134667      -0.00013781      -0.00039286      -0.00023963
C       -0.40877624       3.70585049       5.10644019       0.00013781       0.00039286       0.00023963
C        1.70858234      -0.14706269      -0.06921700       0.00025737      -0.00030056       0.00015041
C        0.52470861       5.61241170       7.93700366      -0.00025737       0.00030056      -0.00015041
C        2.52841847       2.58545046       3.80087295      -0.00032447       0.00019232       0.00046537
C       -0.29512769       2.87989856       4.06691413       0.00032447      -0.00019232      -0.00046537
C        1.22737216       1.22958098       0.01696106      -0.00014810       0.00008896       0.00046845
C        1.00591885       4.23576805       7.85082584       0.00014810      -0.00008896      -0.00046845
C        3.00968876       3.96206678       3.71446459      -0.00004114      -0.00018692      -0.00025994
C       -0.77639768       1.50328223       4.15332223       0.00004114       0.00018692       0.00025994
N       -2.58843629       2.04300338       7.26041300       0.00005502       0.00008048      -0.00047180
N        4.82172745       3.42234564       0.60737371      -0.00005502      -0.00008048       0.00047180
N        2.81865337       4.77516081       4.74410133       0.00016301       0.00034196       0.00031625
N       -0.58536228       0.69018819       3.12368549      -0.00016301      -0.00034196      -0.00031625
O        0.64056278       1.65433872       1.05116297       0.00034838       0.00011210      -0.00002828
O        1.59272798       3.81101014       6.81662376      -0.00034838      -0.00011210       0.00002828
O        3.59619194       4.38673192       2.68004994      -0.00022009       0.00017766      -0.00015170
O       -1.36290124       1.07861725       5.18773691       0.00022009      -0.00017766       0.00015170
H        1.12563971       4.81119349       1.89621248       0.00002031      -0.00006505      -0.00048131
H        1.10765143       0.65415552       5.97157421      -0.00002031       0.00006505       0.00048131
H        3.11075441       2.07862865       1.83531088      -0.00006505      -0.00008408       0.00058775
H       -0.87746333       3.38672036       6.03247593       0.00006505       0.00008408      -0.00058775
H        1.93050335       3.46903390       0.92796322       0.00019335      -0.00005888      -0.00016404
H        0.30278772       1.99631510       6.93982367      -0.00019335       0.00005888       0.00016404
H        2.30593749       0.73669043       2.80392045      -0.00013164       0.00010362       0.00015812
H       -0.07264640       4.72865857       5.06386639       0.00013164      -0.00010362      -0.00015812
H       -1.85542467      -0.46554880       7.26387720       0.00020389       0.00014192       0.00009539
H        4.08871564       5.93089769       0.60390945      -0.00020389      -0.00014192      -0.00009539
H        2.08531819       2.26675914       4.74094786      -0.00015272       0.00017663      -0.00022240
H        0.14797259       3.19859002       3.12683920       0.00015272      -0.00017663       0.00022240
H       -3.15852732       2.89771391       7.27132287      -0.00008536       0.00035353      -0.00003188
H        5.39181817       2.56763509       0.59646406       0.00008536      -0.00035353       0.00003188
H        3.38876869       5.62988579       4.73303830      -0.00003882       0.00021057       0.00005116
H       -1.15547781      -0.16453678       3.13474854       0.00003882      -0.00021057      -0.00005116
H       -2.07537834       1.73943451       6.40837650      -0.00010490       0.00019180       0.00005965
H        4.30866955       3.72591451       1.45941008       0.00010490      -0.00019180      -0.00005965
H        2.30555963       4.47172480       5.59616024       0.00002468       0.00013164       0.00004319
H       -0.07226867       0.99362422       2.27162685      -0.00002468      -0.00013164      -0.00004319
