40
Lattice="5.40594579432943 0.00022649199955 -0.83418180835344 -0.0002548779995 5.11848597589683 -0.00022498799956 -4.10854493189031 0.00012640999975 7.41544703036295" Properties=species:S:1:pos:R:3:forces:R:3 pbc="T T T"
C        1.23814830       4.21734248       0.74319083      -0.00011930       0.00115391      -0.00017689
C        0.05899756       0.90149663       5.83784962       0.00011930      -0.00115391       0.00017689
C        2.11322747       1.65820980       2.13010541       0.00065640       0.00004217      -0.00132540
C       -0.81608159       3.46062926       4.45093505      -0.00065640      -0.00004217       0.00132540
C        1.51913097      -0.12261102      -0.28772296      -0.00096494       0.00055459       0.00128478
C       -0.22198487       5.24145008       6.86876325       0.00096494      -0.00055459      -0.00128478
C        1.83243163       2.43679746       3.16115319       0.00026200       0.00077827       0.00043554
C       -0.53528571       2.68204159       3.41988745      -0.00026200      -0.00077827      -0.00043554
C        1.17166049       1.22570815      -0.19613375      -0.00000489       0.00012316       0.00055973
C        0.12548561       3.89313091       6.77717426       0.00000489      -0.00012316      -0.00055973
C        2.17976499       3.78512956       3.06945069      -0.00017689       0.00195455       0.00032139
C       -0.88261879       1.33370947       3.51158974       0.00017689      -0.00195455      -0.00032139
N       -2.51147779       2.09527962       6.35962073       0.00003291       0.00118862      -0.00119788
N        3.80862406       3.02355942       0.22141959      -0.00003291      -0.00118862       0.00119788
N        1.75427487       4.65463880       3.92907959      -0.00018075      -0.00102484       0.00027151
N       -0.45712867       0.46420022       2.65196080       0.00018075       0.00102484      -0.00027151
O        0.52146265       1.66320535       0.80626272      -0.00065795       0.00090400      -0.00086929
O        0.77568327       3.45563354       5.77477764       0.00065795      -0.00090400       0.00086929
O        2.82991688       4.22261619       2.06701901       0.00057696       0.00079241       0.00095388
O       -1.53277101       0.89622297       4.51402145      -0.00057696      -0.00079241      -0.00095388
H        0.66489088       4.56579496       1.56777213      -0.00087855       0.00062632       0.00088626
H        0.63225539       0.55304409       5.01326816       0.00087855      -0.00062632      -0.00088626
H        2.68645597       2.00663827       1.30548112       0.00068726       0.00051371      -0.00060909
H       -1.38930980       3.11220078       5.27555928      -0.00068726      -0.00051371       0.00060909
H        1.36640310       3.17011785       0.74528629      -0.00088472       0.00054816      -0.00058981
H       -0.06925695       1.94872117       5.83575419       0.00088472      -0.00054816       0.00058981
H        1.98507869       0.61096361       2.12809188       0.00090888       0.00085643       0.00063095
H       -0.68793250       4.50787544       4.45294853      -0.00090888      -0.00085643      -0.00063095
H       -2.10813596      -0.47939980       6.24538296      -0.00053736       0.00050651       0.00044763
H        3.40528208       5.59823871       0.33565731       0.00053736      -0.00050651      -0.00044763
H        1.35118397       2.07991322       4.04354182       0.00077904       0.00068546      -0.00090554
H       -0.05403807       3.03892596       2.53749885      -0.00077904      -0.00068546       0.00090554
H       -2.99874858       2.97629466       6.39694386       0.00058364       0.00064920      -0.00015349
H        4.29589453       2.14254438       0.18409670      -0.00058364      -0.00064920       0.00015349
H        2.24145549       5.53567491       3.89167251      -0.00015658       0.00139559       0.00014295
H       -0.94430947      -0.41683588       2.68936791       0.00015658      -0.00139559      -0.00014295
H       -2.05044999       1.71499444       5.50312748       0.00073071       0.00014424      -0.00015735
H        3.34759630       3.40384459       1.07791269      -0.00073071      -0.00014424       0.00015735
H        1.29328314       4.27436624       4.78560060      -0.00067594       0.00030879       0.00014064
H        0.00386293       0.84447279       1.79544004       0.00067594      -0.00030879      -0.00014064
