40
Lattice="5.22825490168016 0.00753425698513 -0.04765366690594 -0.60962571679668 5.13021225787369 -0.03947361892208 -4.20519133869955 0.80264488741569 7.0452365670937" Properties=species:S:1:pos:R:3:forces:R:3 pbc="T T T"
C        1.54270684       3.75829504       1.17997633      -0.00005425      -0.00075976       0.00114208
C       -1.12926426       2.18208978       5.77813039      -0.00036330       0.00060215      -0.00090220
C        1.14335502       1.25887406       2.47893975       0.00021880      -0.00083792      -0.00086878
C       -0.72991989       4.68150455       4.47917601       0.00004165       0.00121922       0.00028205
C        1.96843169      -0.39283965       0.11635632      -0.00003291      -0.00041112      -0.00079576
C       -1.55499401       6.33322117       6.84175438       0.00006145       0.00052013       0.00067877
C        0.84977798       2.49318269       3.43847728      -0.00004011      -0.00034427       0.00088652
C       -0.43633977       3.44720049       3.51963039       0.00001414       0.00030828      -0.00072531
C        0.61973876       0.38409092       0.29050773      -0.00055870      -0.00069137       0.00147864
C       -0.20630107       5.55629209       6.66760109       0.00058493       0.00066463      -0.00142671
C        2.14588908       3.35766977       3.42942123       0.00027099       0.00066360      -0.00188102
C       -1.73245144       2.58271200       3.52868768      -0.00023294      -0.00057053       0.00191599
N       -3.54644917       2.46344823       6.76640275       0.00025608       0.00230962      -0.00082584
N        3.95988728       3.47693406       0.19170709      -0.00027434      -0.00226360       0.00077493
N        2.01439765       4.12717588       4.58865266      -0.00074305       0.00182343       0.00165528
N       -1.60095495       1.81321289       2.36945568       0.00021032      -0.00242404      -0.00151155
O        0.26098665       0.47492230       1.67796993       0.00128941       0.00015041       0.00015324
O        0.15245218       5.46546090       5.28013892      -0.00136526      -0.00019103      -0.00010362
O        2.26896460       4.23584179       2.29406569      -0.00084358      -0.00194555      -0.00062761
O       -1.85552732       1.70454034       4.66404375       0.00089706       0.00199852       0.00062015
H        0.58859997       3.43076436       1.54523581       0.00088832       0.00021546      -0.00049957
H       -0.17516505       2.50961728       5.41287470      -0.00061552      -0.00013035       0.00038078
H        1.89187182       1.60143772       1.79572578      -0.00117268      -0.00040186       0.00058493
H       -1.47843103       4.33894674       5.16238043       0.00091068       0.00026559      -0.00030365
H        2.01794395       2.88401834       0.77424430      -0.00048440       0.00060678       0.00081118
H       -1.60450621       3.05636513       6.18386539       0.00053093      -0.00066412      -0.00084615
H        1.60455669       0.55783777       3.16161419      -0.00022240       0.00046254      -0.00074768
H       -1.19111958       5.38254738       3.79649305       0.00031625      -0.00066309       0.00093974
H       -2.38256608      -0.24982284       6.31276498       0.00006479       0.00074588       0.00086698
H        2.79600410       6.19020586       0.64534430      -0.00006453      -0.00075410      -0.00085901
H        0.91721457       1.98544568       4.39660740      -0.00004679       0.00066849      -0.00069908
H       -0.50377658       3.95493645       2.56150259       0.00004397      -0.00061244       0.00064432
H       -4.50161658       2.75309056       6.62006126       0.00008999      -0.00039466       0.00027022
H        4.91505396       3.18729178       0.33804725      -0.00004834       0.00038747      -0.00025428
H        2.21012466       5.11595496       4.44120500      -0.00031162      -0.00149767       0.00017098
H       -1.79668755       0.82442373       2.51690526       0.00039235       0.00191213      -0.00026200
H       -3.13934875       2.42867033       5.84032667      -0.00036921      -0.00032936       0.00044197
H        3.55278710       3.51171270       1.11778296       0.00037590       0.00032576      -0.00043683
H        1.08091329       4.08897590       4.93936608       0.00049931      -0.00006428      -0.00058184
H       -0.66747877       1.85140649       2.01874448      -0.00011364       0.00010053       0.00045843
