40
Lattice="5.34122931345717 0.0279633259448 -0.0669228398679 -0.60031493781506 5.31914481950076 -0.0612023198792 -4.31928579347434 0.7848085354509 7.18406766281966" Properties=species:S:1:pos:R:3:forces:R:3 pbc="T T T"
C        1.58217774       3.93591775       1.18331068       0.00014090      -0.00141436       0.00182317
C       -1.16054910       2.19599071       5.87263200      -0.00013421       0.00135934      -0.00182754
C        1.16123680       1.33892354       2.48904063       0.00088266      -0.00188128      -0.00123850
C       -0.73960780       4.79298433       4.56690192      -0.00090786       0.00187536       0.00124441
C        2.01206559      -0.38256266       0.12788306      -0.00023603      -0.00102741      -0.00123644
C       -1.59043690       6.51447017       6.92805973       0.00023654       0.00104901       0.00122539
C        0.87068167       2.58761347       3.47653124       0.00022086      -0.00086055       0.00131872
C       -0.44905312       3.54429449       3.57941110      -0.00021494       0.00084718      -0.00129661
C        0.63265425       0.40422899       0.29457221      -0.00091017      -0.00063455       0.00167585
C       -0.21102547       5.72767902       6.76137025       0.00089860       0.00060318      -0.00165810
C        2.19050366       3.46972472       3.46707138       0.00037487       0.00107524      -0.00269349
C       -1.76887496       2.66218292       3.58887122      -0.00037975      -0.00106521       0.00269812
N       -3.63659462       2.47170704       6.89772002       0.00045226       0.00223686      -0.00160000
N        4.05822264       3.66020027       0.15822354      -0.00038464      -0.00221398       0.00150384
N        2.06678736       4.24483635       4.63701134      -0.00066463       0.00465473       0.00282204
N       -1.64515880       1.88707171       2.41893143       0.00067260      -0.00468326      -0.00283181
O        0.26890291       0.52985469       1.69232839       0.00211088       0.00019360      -0.00000514
O        0.15272568       5.60205299       5.36361422      -0.00210471      -0.00019180       0.00001208
O        2.30901948       4.37184677       2.32885361      -0.00130869      -0.00236541      -0.00079447
O       -1.88739094       1.76006089       4.72708895       0.00131486       0.00237519       0.00080373
H        0.60988641       3.62464574       1.53078008       0.00202397       0.00064560      -0.00067029
H       -0.18825776       2.50726186       5.52516241      -0.00201986      -0.00064200       0.00066823
H        1.90128129       1.69458816       1.79557670      -0.00144907      -0.00072094       0.00143982
H       -1.47965284       4.43731964       5.26036600       0.00146090       0.00072608      -0.00145139
H        2.04608468       3.05310258       0.76706034      -0.00112974       0.00185325       0.00101970
H       -1.62445564       3.07880493       6.28888216       0.00111457      -0.00182548      -0.00100864
H        1.63202267       0.63662902       3.17186039      -0.00054996       0.00131101      -0.00138788
H       -1.21039398       5.49527887       3.88408219       0.00055253      -0.00131281       0.00138968
H       -2.46718762      -0.26352714       6.46488299       0.00001080       0.00115571       0.00115854
H        2.88881631       6.39543497       0.59105961      -0.00001131      -0.00115854      -0.00115802
H        0.94059128       2.07190230       4.43421569      -0.00009410       0.00134752      -0.00154420
H       -0.51896263       4.06000525       2.62172720       0.00009179      -0.00133672       0.00152544
H       -4.58841202       2.78868626       6.76903083       0.00096905      -0.00088163       0.00020954
H        5.01004092       3.34322121       0.28691128      -0.00099476       0.00088575      -0.00020672
H        2.26951276       5.23087335       4.47563938      -0.00031393      -0.00278065       0.00017355
H       -1.84788425       0.90103422       2.58030328       0.00031727       0.00279865      -0.00017638
H       -3.23194606       2.43496048       5.96686319      -0.00076336      -0.00044943       0.00113283
H        3.65357540       3.69694731       1.08907883       0.00073405       0.00045303      -0.00106161
H        1.13058016       4.22319285       4.99422448       0.00106264      -0.00053505      -0.00114645
H       -0.70895137       1.90871481       2.06171822      -0.00107086       0.00053505       0.00114928
