40
Lattice="5.21424510870782 0.00605662298805 -0.04528366891062 -0.60963392979667 5.10939789691477 -0.03736326692625 -4.19095363572765 0.80369033441363 7.02700557812968" Properties=species:S:1:pos:R:3:forces:R:3 pbc="T T T"
C        1.53862468       3.73835555       1.17826013       0.00035815      -0.00062144       0.00093357
C       -1.12496988       2.18078109       5.76610032      -0.00009410       0.00058647      -0.00109426
C        1.14202062       1.25021542       2.47692814      -0.00001594      -0.00118528      -0.00031753
C       -0.72836089       4.66892365       4.46742636      -0.00016686       0.00093228       0.00070448
C        1.96312168      -0.39390539       0.11456453       0.00002674      -0.00047565      -0.00074022
C       -1.54946377       6.31304180       6.82979339      -0.00004551       0.00046614       0.00081298
C        0.84791125       2.48297471       3.43273206      -0.00003291      -0.00030802       0.00059984
C       -0.43425381       3.43616120       3.51162773       0.00005219       0.00034221      -0.00069651
C        0.61840146       0.38179860       0.28990150      -0.00054996      -0.00070165       0.00135317
C       -0.20474357       5.53733784       6.65445763       0.00053505       0.00068983      -0.00138634
C        2.14089937       3.34549463       3.42357905       0.00026482       0.00051088      -0.00194427
C       -1.72724167       2.57364197       3.52077978      -0.00027125      -0.00054096       0.00193476
N       -3.53510488       2.46123895       6.74883667       0.00037410       0.00216101      -0.00064432
N        3.94876290       3.45789720       0.19552181      -0.00042346      -0.00214919       0.00067543
N        2.00824910       4.11445664       4.58116312      -0.00068314       0.00200855       0.00153881
N       -1.59459222       1.80467805       2.36319564       0.00077802      -0.00185736      -0.00154909
O        0.26086849       0.46877588       1.67599996       0.00122590       0.00019206       0.00000668
O        0.15278854       5.45035997       5.26835913      -0.00116677      -0.00015504      -0.00003574
O        2.26478787       4.22049145       2.28855554      -0.00078599      -0.00177123      -0.00048465
O       -1.85113005       1.69864493       4.65580310       0.00076722       0.00176301       0.00049468
H        0.58672760       3.40943218       1.54579715       0.00073122       0.00019515      -0.00038181
H       -0.17306838       2.50970454       5.39856070      -0.00087855      -0.00023680       0.00044609
H        1.89125750       1.59115303       1.79472045      -0.00079319      -0.00025274       0.00028128
H       -1.47760189       4.32798223       5.14964034       0.00097599       0.00034556      -0.00047437
H        2.01518270       2.86521756       0.77369405      -0.00057927       0.00067389       0.00072968
H       -1.60152422       3.05391770       6.17066417       0.00051576      -0.00057567      -0.00068237
H        1.60216625       0.54977265       3.15992654      -0.00022317       0.00050908      -0.00086081
H       -1.18850789       5.36936226       3.78443349       0.00016378      -0.00038001       0.00073714
H       -2.37160690      -0.24840480       6.29206508      -0.00007225       0.00053942       0.00068546
H        2.78526465       6.16754131       0.65229386       0.00006711      -0.00055356      -0.00070371
H        0.91534037       1.97664755       4.39099822       0.00000231       0.00065383      -0.00058467
H       -0.50168266       3.94248915       2.55336011       0.00000026      -0.00069060       0.00062144
H       -4.49071529       2.74765795       6.60159227       0.00014218      -0.00034427       0.00016404
H        4.90437259       3.17147794       0.34276593      -0.00011801       0.00033759      -0.00016404
H        2.20300007       5.10345750       4.43505270      -0.00029413      -0.00165630       0.00025068
H       -1.78934226       0.81567972       2.50930580       0.00027614       0.00155783      -0.00022857
H       -3.12858120       2.42627787       5.82301689      -0.00042295      -0.00032499       0.00027665
H        3.54223923       3.49285865       1.12134222       0.00042680       0.00032216      -0.00029542
H        1.07520027       4.07430583       4.93110600       0.00031162      -0.00028025      -0.00044326
H       -0.66154203       1.84483046       2.01325252      -0.00037795       0.00027382       0.00046588
