40
Lattice="6.01702741646478 1.759862234e-05 -0.28183959186674 -1.156786489e-05 4.5200280215189 -7.24842743e-06 -3.81853008530307 -5.55356245e-06 8.36271380799878" Properties=species:S:1:pos:R:3:forces:R:3 pbc="T T T"
C        2.01839835       3.15753308       0.81957320      -0.00033399       0.00021443      -0.00014964
C        0.18008725       1.36250704       7.26129380       0.00033399      -0.00021443       0.00014964
C        2.08935656       0.89752657       3.07994283       0.00001234      -0.00046074      -0.00016147
C        0.10912904       3.62251349       5.00092417      -0.00001234       0.00046074       0.00016147
C        1.90504259      -0.56742412      -0.23135830       0.00015170       0.00031547       0.00055793
C        0.29344326       5.08746419       8.31222514      -0.00015170      -0.00031547      -0.00055793
C        2.20271703       1.69259263       4.13087487      -0.00012213       0.00061295      -0.00004165
C       -0.00423137       2.82744743       3.94999237       0.00012213      -0.00061295       0.00004165
C        1.13891745       0.64823387      -0.13170191       0.00057464       0.00034658       0.00031419
C        1.05956845       3.87180619       8.21256900      -0.00057464      -0.00034658      -0.00031419
C        2.96883350       2.90825335       4.03121977      -0.00019052       0.00067286      -0.00080218
C       -0.77034754       1.61178671       4.04964722       0.00019052      -0.00067286       0.00080218
N       -2.85385378       1.42061854       7.18923442      -0.00000489      -0.00013010       0.00017046
N        5.05233979       3.09942152       0.89163244       0.00000489       0.00013010      -0.00017046
N        3.14307851       3.68065311       5.07299049      -0.00031702      -0.00045946      -0.00009230
N       -0.94459255       0.83938695       3.00787649       0.00031702       0.00045946       0.00009230
O        0.62166998       0.96953783       0.97108352      -0.00057644      -0.00011647       0.00058390
O        1.57681568       3.55050209       7.10978335       0.00057644       0.00011647      -0.00058390
O        3.48608295       3.22956175       2.92842473       0.00031136      -0.00029259      -0.00006839
O       -1.28759735       1.29047844       5.15244227      -0.00031136       0.00029259       0.00006839
H        1.54283846       3.39739245       1.74779764       0.00005039       0.00011030      -0.00010362
H        0.65564755       1.12264760       6.33306922      -0.00005039      -0.00011030       0.00010362
H        2.56491174       1.13738088       2.15171740      -0.00000283       0.00014552       0.00002545
H       -0.36642578       3.38265918       5.92914959       0.00000283      -0.00014552      -0.00002545
H        2.61527702       2.27181891       0.78257449      -0.00012418      -0.00039698      -0.00010824
H       -0.41679109       2.24822115       7.29829255       0.00012418       0.00039698       0.00010824
H        1.49247735       0.01180146       3.11694274       0.00031933      -0.00010670       0.00009539
H        0.70600861       4.50823860       4.96392425      -0.00031933       0.00010670      -0.00009539
H       -1.50287251      -0.81093366       7.16492668       0.00024503      -0.00005322       0.00041909
H        3.70135837       5.33097361       0.91594013      -0.00024503       0.00005322      -0.00041909
H        1.79210359       1.44909125       5.09730800      -0.00022163      -0.00005271      -0.00050625
H        0.40638207       3.07094894       2.98355924       0.00022163       0.00005271       0.00050625
H       -3.45314027       2.24459318       7.34272769      -0.00004062      -0.00034710      -0.00031445
H        5.65162599       2.27544688       0.73813943       0.00004062       0.00034710       0.00031445
H        3.74235628       4.50462611       4.91949351       0.00017072      -0.00017175       0.00027202
H       -1.54387050       0.01541395       3.16137348      -0.00017072       0.00017175      -0.00027202
H       -2.22985182       1.40376059       6.38004197      -0.00013961       0.00076053       0.00015838
H        4.42833789       3.11627947       1.70082477       0.00013961      -0.00076053      -0.00015838
H        2.51907315       3.66379047       5.88218386       0.00023011       0.00079370      -0.00022574
H       -0.32058731       0.85624959       2.19868337      -0.00023011      -0.00079370       0.00022574
