40
Lattice="5.66329212916476 1.756571234e-05 -0.42109920172813 -1.003754991e-05 4.29239317374572 -3.91628996e-06 -3.80625731290024 -1.19298749e-06 7.97464565716954" Properties=species:S:1:pos:R:3:forces:R:3 pbc="T T T"
C        1.89680622       2.90025443       0.75189847       0.00030673      -0.00062838       0.00009256
C       -0.03978159       1.39215518       6.80164411      -0.00030673       0.00062838      -0.00009256
C        1.86334084       0.75404766       2.81432071       0.00049262       0.00099836       0.00034890
C       -0.00631621       3.53836188       4.73922186      -0.00049262      -0.00099836      -0.00034890
C        1.87327581      -0.57237224      -0.27151216      -0.00010876       0.00021263      -0.00032293
C       -0.01625093       4.86478179       7.82505457       0.00010876      -0.00021263       0.00032293
C        1.88688540       1.57383383       3.83774234       0.00016069      -0.00033090      -0.00085078
C       -0.02986071       2.71857571       3.71580047      -0.00016069       0.00033090       0.00085078
C        1.09125775       0.59377153      -0.18509424      -0.00032782       0.00074202      -0.00056410
C        0.76576718       3.69863801       7.73863690       0.00032782      -0.00074202       0.00056410
C        2.66890250       2.73998482       3.75131388      -0.00027896       0.00001928       0.00083972
C       -0.81187752       1.55242472       3.80222868       0.00027896      -0.00001928      -0.00083972
N       -2.89070092       1.39050939       6.79548115       0.00099425      -0.00080810      -0.00056770
N        4.74772596       2.90190015       0.75806129      -0.00099425       0.00080810       0.00056770
N        2.84457951       3.53671001       4.74539460       0.00083767       0.00044300      -0.00073405
N       -0.98755454       0.75569954       2.80814795      -0.00083767      -0.00044300       0.00073405
O        0.55353992       0.87480543       0.91266833      -0.00022626      -0.00046280      -0.00018203
O        1.30348478       3.41760398       6.64087413       0.00022626       0.00046280       0.00018203
O        3.20661285       3.02101112       2.65355034       0.00046974      -0.00016661       0.00009410
O       -1.34958821       1.27139855       4.89999224      -0.00046974       0.00016661      -0.00009410
H        1.34403670       3.10052135       1.62932396       0.00004242      -0.00019078       0.00020826
H        0.51298834       1.19188819       5.92421847      -0.00004242       0.00019078      -0.00020826
H        2.41611964       0.95433007       1.93689212      -0.00025325      -0.00030236       0.00010130
H       -0.55909466       3.33807947       5.61665043       0.00025325       0.00030236      -0.00010130
H        2.46819889       2.01632171       0.70267792      -0.00010259       0.00028231      -0.00066360
H       -0.61117394       2.27608783       6.85086469       0.00010259      -0.00028231       0.00066360
H        1.29196441      -0.12986909       2.86354363      -0.00035893      -0.00044660       0.00069317
H        0.56506057       4.42227864       4.68999893       0.00035893       0.00044660      -0.00069317
H       -1.55968837      -0.82019918       6.73614966       0.00027999      -0.00015041       0.00043400
H        3.41671326       5.11260862       0.81739273      -0.00027999       0.00015041      -0.00043400
H        1.51359396       1.32600466       4.80471758      -0.00033759      -0.00016429      -0.00018049
H        0.34343073       2.96640500       2.74882522       0.00033759       0.00016429       0.00018049
H       -3.48791751       2.20561288       6.99209546      -0.00041420       0.00041549      -0.00047411
H        5.34494226       2.08679666       0.56144722       0.00041420      -0.00041549       0.00047411
H        3.44181366       4.35183466       4.54876503      -0.00016455      -0.00032010       0.00078187
H       -1.58478886      -0.05942512       3.00477754       0.00016455       0.00032010      -0.00078187
H       -2.22603235       1.43480620       6.02915150      -0.00039261      -0.00033604       0.00017741
H        4.08305744       2.85760334       1.52439082       0.00039261       0.00033604      -0.00017741
H        2.17993459       3.58101604       5.51170531      -0.00042038      -0.00038181       0.00066694
H       -0.32290973       0.71139350       2.04183748       0.00042038       0.00038181      -0.00066694
