40
Lattice="6.37534194921701 1.651259235e-05 -0.18429847475558 -1.249757238e-05 4.71198215204295 -6.20353494e-06 -3.89656873659645 -1.81827748e-06 8.65800740265982" Properties=species:S:1:pos:R:3:forces:R:3 pbc="T T T"
C        2.12763666       3.39060193       0.86194593       0.00014244       0.00013395       0.00008562
C        0.35112387       1.32139499       7.61175683      -0.00014244      -0.00013395      -0.00008562
C        2.29940976       1.03461539       3.28275109      -0.00026791      -0.00016532      -0.00029645
C        0.17935078       3.67738146       5.19095167       0.00026791       0.00016532       0.00029645
C        1.95172970      -0.52851980      -0.19029004      -0.00023911       0.00034299       0.00022600
C        0.52703110       5.24051666       8.66399264       0.00023911      -0.00034299      -0.00022600
C        2.47532464       1.82747585       4.33498719       0.00022111       0.00048234       0.00017535
C        0.00343597       2.88452100       4.13871582      -0.00022111      -0.00048234      -0.00017535
C        1.18600734       0.71065823      -0.07408483       0.00019129       0.00036792      -0.00075410
C        1.29275353       4.00133863       8.54778769      -0.00019129      -0.00036792       0.00075410
C        3.24103942       3.06665844       4.21878534      -0.00010567       0.00033836       0.00038798
C       -0.76227850       1.64533841       4.25491741       0.00010567      -0.00033836      -0.00038798
N       -2.86284037       1.47487980       7.51406363      -0.00027357      -0.00056050      -0.00009616
N        5.34160135       3.23711705       0.95963899       0.00027357       0.00056050       0.00009616
N        3.39331411       3.83088344       5.28863769       0.00018846      -0.00046408       0.00039004
N       -0.91455319       0.88111341       3.18506506      -0.00018846       0.00046408      -0.00039004
O        0.66025418       1.04121519       1.02283555       0.00020723      -0.00003677      -0.00006376
O        1.81850641       3.67078152       7.45086708      -0.00020723       0.00003677       0.00006376
O        3.76679158       3.39721788       3.12186076      -0.00027768      -0.00008228       0.00022497
O       -1.28803104       1.31477911       5.35184200       0.00027768       0.00008228      -0.00022497
H        1.71872638       3.64787750       1.82610300       0.00019258       0.00010696       0.00023911
H        0.76003460       1.06411935       6.64759962      -0.00019258      -0.00010696      -0.00023911
H        2.70831666       1.29188894       2.31859264      -0.00018023       0.00011570      -0.00026277
H       -0.22955574       3.42010791       6.15511011       0.00018023      -0.00011570       0.00026277
H        2.71646836       2.48906105       0.79780307      -0.00007276      -0.00027691       0.00022651
H       -0.23770747       2.22293580       7.67589974       0.00007276       0.00027691      -0.00022651
H        1.71058140       0.13306812       3.34689636       0.00014527      -0.00016584      -0.00023114
H        0.76817952       4.57892873       5.12680639      -0.00014527       0.00016584       0.00023114
H       -1.54826469      -0.77486532       7.48846036      -0.00025043       0.00027896      -0.00002725
H        4.02702550       5.48686206       0.98524220       0.00025043      -0.00027896       0.00002725
H        2.07875116       1.58113160       5.31424920       0.00029671       0.00030185      -0.00010130
H        0.40000945       3.13086539       3.15945381      -0.00029671      -0.00030185       0.00010130
H       -3.45560050       2.30993863       7.62815204      -0.00028488       0.00007739       0.00038387
H        5.93436117       2.40205822       0.84555084       0.00028488      -0.00007739      -0.00038387
H        3.98606947       4.66594602       5.17455112       0.00029645       0.00008150      -0.00040032
H       -1.50730874       0.04605083       3.29915163      -0.00029645      -0.00008150       0.00040032
H       -2.25801626       1.40482014       6.69094975       0.00025942      -0.00004705      -0.00022651
H        4.73677730       3.30717672       1.78275274      -0.00025942       0.00004705       0.00022651
H        2.78848949       3.76082169       6.11175504      -0.00018358      -0.00004217       0.00013113
H       -0.30972869       0.95117516       2.36194796       0.00018358       0.00004217      -0.00013113
