40
Lattice="5.8490833110039 1.654550235e-05 -0.33743494799731 -1.151849989e-05 4.40998065201209 -3.77642246e-06 -3.79687875282786 3.6201e-07 8.19574923576875" Properties=species:S:1:pos:R:3:forces:R:3 pbc="T T T"
C        1.96565472       3.03013887       0.79340359      -0.00005322       0.00011878       0.00085026
C        0.08653818       1.37985874       7.06490696       0.00005322      -0.00011878      -0.00085026
C        1.98498175       0.82515249       2.96702548      -0.00024451       0.00019438       0.00003265
C        0.06721114       3.58484505       4.89128507       0.00024451      -0.00019438      -0.00003265
C        1.88626352      -0.57829317      -0.24962586      -0.00026328      -0.00004268       0.00005245
C        0.16592962       4.98829071       8.10793624       0.00026328       0.00004268      -0.00005245
C        2.06437938       1.62670769       4.01006691       0.00013935      -0.00052425      -0.00054122
C       -0.01218642       2.78328985       3.84824388      -0.00013935       0.00052425       0.00054122
C        1.11633706       0.61850349      -0.15711972      -0.00003857      -0.00008099       0.00006762
C        0.93585614       3.79149405       8.01543036       0.00003857       0.00008099      -0.00006762
C        2.83429768       2.82350367       3.91755620       0.00002777      -0.00000334       0.00004242
C       -0.78210444       1.58649386       3.94075433      -0.00002777       0.00000334      -0.00004242
N       -2.86004690       1.39814213       7.01556867       0.00066514      -0.00018615       0.00015838
N        4.91224020       3.01185541       0.84274174      -0.00066514       0.00018615      -0.00015838
N        3.01379491       3.60314308       4.94061825      -0.00022831       0.00014347      -0.00049468
N       -0.96160166       0.80685446       2.91769228       0.00022831      -0.00014347       0.00049468
O        0.59624433       0.92808675       0.94570334       0.00046640      -0.00001260       0.00011699
O        1.45594862       3.48191065       6.91260709      -0.00046640       0.00001260      -0.00011699
O        3.35438803       3.13308769       2.81473256      -0.00041163       0.00004371      -0.00014218
O       -1.30219514       1.27690998       5.04357799       0.00041163      -0.00004371       0.00014218
H        1.45949304       3.25476417       1.70230030      -0.00005322       0.00003805      -0.00006608
H        0.59270026       1.15523337       6.15601011       0.00005322      -0.00003805       0.00006608
H        2.49113802       1.04977676       2.05813897       0.00025891       0.00012418      -0.00031650
H       -0.43894477       3.36022077       5.80017156      -0.00025891      -0.00012418       0.00031650
H        2.55818809       2.14905017       0.75728388       0.00004062      -0.00034838      -0.00014141
H       -0.50599487       2.26094737       7.10102671      -0.00004062       0.00034838       0.00014141
H        1.39244926      -0.05594236       3.00315442       0.00007019      -0.00018383       0.00011827
H        0.65974398       4.46593990       4.85515611      -0.00007019       0.00018383      -0.00011827
H       -1.50804993      -0.82274015       6.98193483       0.00011596      -0.00015324       0.00043375
H        3.56024308       5.23273758       0.87637553      -0.00011596       0.00015324      -0.00043375
H        1.66181327       1.38225637       4.97425478      -0.00009565      -0.00014707      -0.00045946
H        0.39037968       3.02774130       2.88405600       0.00009565       0.00014707       0.00045946
H       -3.46114008       2.21650167       7.18794658      -0.00035738      -0.00009205      -0.00023603
H        5.51333309       2.19349587       0.67036408       0.00035738       0.00009205       0.00023603
H        3.61488961       4.42151141       4.76823605       0.00018203      -0.00032293       0.00029825
H       -1.56269654      -0.01151387       3.09007449      -0.00018203       0.00032293      -0.00029825
H       -2.22178415       1.40734833       6.22058382      -0.00019206       0.00003265       0.00014552
H        4.27397751       3.00264921       1.63772647       0.00019206      -0.00003265      -0.00014552
H        2.37553781       3.61235109       5.73559904       0.00002005       0.00001028       0.00004114
H       -0.32334468       0.79764645       2.12271173      -0.00002005      -0.00001028      -0.00004114
