40
Lattice="5.5628398181633 1.211087989e-05 -0.51738308280354 -1.303235988e-05 4.19253032197625 -5.86620745e-06 -3.89165735519983 -2.31192748e-06 7.74214895754928" Properties=species:S:1:pos:R:3:forces:R:3 pbc="T T T"
C        1.85323318       2.79151571       0.71085296       0.00019258       0.00043812      -0.00029696
C       -0.18206388       1.40102446       6.51390708      -0.00019258      -0.00043812       0.00029696
C        1.76376495       0.69525492       2.64284016       0.00008587      -0.00007199      -0.00069060
C       -0.09259566       3.49728519       4.58191987      -0.00008587       0.00007199       0.00069060
C        1.89675827      -0.54566770      -0.27912269       0.00016764      -0.00004474       0.00048337
C       -0.22558873       4.73820782       7.50388256      -0.00016764       0.00004474      -0.00048337
C        1.72025119       1.55059881       3.63280476      -0.00032370       0.00031753       0.00065203
C       -0.04908184       2.64194129       3.59195549       0.00032370      -0.00031753      -0.00065203
C        1.07822493       0.57424256      -0.19904002      -0.00028719       0.00013755      -0.00031702
C        0.59294464       3.61829755       7.42380012       0.00028719      -0.00013755       0.00031702
C        2.53877832       2.67051314       3.55272137       0.00005476       0.00030262       0.00102458
C       -0.86760869       1.52202697       3.67203864      -0.00005476      -0.00030262      -0.00102458
N       -2.97904599       1.39508814       6.58015219      -0.00041678      -0.00007790       0.00058981
N        4.65021568       2.79745197       0.64460771       0.00041678       0.00007790      -0.00058981
N        2.70439057       3.49136815       4.51567788      -0.00016018      -0.00050805      -0.00024657
N       -1.03322094       0.70117196       2.70908212       0.00016018       0.00050805       0.00024657
O        0.50334538       0.81320283       0.88649170      -0.00001028      -0.00006222      -0.00052656
O        1.16782398       3.37933715       6.33826822       0.00001028       0.00006222       0.00052656
O        3.11365098       2.90947463       2.46720160       0.00036587      -0.00000848      -0.00025531
O       -1.44248168       1.28306561       4.75755844      -0.00036587       0.00000848       0.00025531
H        1.21951270       2.93875091       1.53475435       0.00001131      -0.00033476       0.00070988
H        0.45165699       1.25378920       5.69000554      -0.00001131       0.00033476      -0.00070988
H        2.39748841       0.84248893       1.81892932      -0.00021957      -0.00038129      -0.00042475
H       -0.72631878       3.35005118       5.40583069       0.00021957       0.00038129       0.00042475
H        2.39631994       1.90080132       0.63192685      -0.00039775       0.00035841      -0.00025454
H       -0.72515034       2.29173880       6.59283321       0.00039775      -0.00035841       0.00025454
H        1.22068657      -0.19546426       2.72176132       0.00037744       0.00034633       0.00028976
H        0.45048306       4.38800437       4.50299868      -0.00037744      -0.00034633      -0.00028976
H       -1.67529048      -0.80770582       6.48706043       0.00071862      -0.00047257       0.00008150
H        3.34646002       5.00024582       0.73769941      -0.00071862       0.00047257      -0.00008150
H        1.40064197       1.28856392       4.60878204      -0.00061449      -0.00036458      -0.00043812
H        0.27052737       2.90397631       2.61597821       0.00061449       0.00036458       0.00043812
H       -3.57131768       2.20953579       6.79551364      -0.00037538      -0.00047720       0.00007482
H        5.24248708       1.98300431       0.42924648       0.00037538       0.00047720      -0.00007482
H        3.29664981       4.30581324       4.30031897       0.00052013      -0.00030622      -0.00017201
H       -1.62548035      -0.11327314       2.92444105      -0.00052013       0.00030622       0.00017201
H       -2.28055079       1.47922937       5.85508303       0.00006068       0.00018538      -0.00030956
H        3.95172054       2.71331073       1.36967674      -0.00006068      -0.00018538       0.00030956
H        2.00588596       3.57550447       5.24075363       0.00024246       0.00017149      -0.00000360
H       -0.33471646       0.61703564       1.98400660      -0.00024246      -0.00017149       0.00000360
