40
Lattice="6.47685398689107 1.624108485e-05 -0.16757110352437 -1.209442489e-05 4.75605844058364 -4.16311496e-06 -3.93467961049787 9.0502499e-07 8.70187224445249" Properties=species:S:1:pos:R:3:forces:R:3 pbc="T T T"
C        2.15163391       3.44801661       0.87135761      -0.00016301      -0.00022060       0.00002031
C        0.39052820       1.30805906       7.66293940       0.00016301       0.00022060      -0.00002031
C        2.35786820       1.06999151       3.31200292       0.00016249      -0.00022703      -0.00001363
C        0.18429390       3.68608408       5.22229408      -0.00016249       0.00022703       0.00001363
C        1.96563510      -0.51129611      -0.17753075      -0.00039929       0.00031625      -0.00050291
C        0.57652727       5.26737172       8.71182759       0.00039929      -0.00031625       0.00050291
C        2.54387426       1.86673844       4.36089590       0.00051473       0.00041703       0.00030750
C       -0.00171208       2.88933715       4.17340136      -0.00051473      -0.00041703      -0.00030750
C        1.19709188       0.72972766      -0.05783644      -0.00010876       0.00015015      -0.00047000
C        1.34507056       4.02634794       8.59213355       0.00010876      -0.00015015       0.00047000
C        3.31241468       3.10776740       4.24119723      -0.00000643       0.00010799       0.00061141
C       -0.77025219       1.64830820       4.29309976       0.00000643      -0.00010799      -0.00061141
N       -2.88137297       1.49407661       7.56999165       0.00020954      -0.00052656       0.00022883
N        5.42353552       3.26199899       0.96430522      -0.00020954       0.00052656      -0.00022883
N        3.45619348       3.87211940       5.31524093      -0.00020903      -0.00059135      -0.00028128
N       -0.91403099       0.88395620       3.21905607       0.00020903       0.00059135       0.00028128
O        0.66574046       1.05919906       1.03662361       0.00022960       0.00057670      -0.00018615
O        1.87642171       3.69687639       7.49767327      -0.00022960      -0.00057670       0.00018615
O        3.84376169       3.43723990       3.14673757      -0.00018769       0.00058750       0.00011878
O       -1.30159959       1.31883584       5.38755944       0.00018769      -0.00058750      -0.00011878
H        1.74952881       3.70022333       1.84151398       0.00020132       0.00049879       0.00006608
H        0.79263374       1.05585226       6.69278288      -0.00020132      -0.00049879      -0.00006608
H        2.75997290       1.32219793       2.34184536      -0.00020826       0.00050137      -0.00003882
H       -0.21781040       3.43387767       6.19245164       0.00020826      -0.00050137       0.00003882
H        2.73955478       2.54456223       0.79773140       0.00005451       0.00016738      -0.00008099
H       -0.19739231       2.21151337       7.73656565      -0.00005451      -0.00016738       0.00008099
H        1.76995305       0.16653366       3.38563062      -0.00005656       0.00016892       0.00007688
H        0.77220944       4.58954194       5.14866638       0.00005656      -0.00016892      -0.00007688
H       -1.57285193      -0.75429047       7.54276952       0.00005039      -0.00025223      -0.00025582
H        4.11501431       5.51036595       0.99152729      -0.00005039       0.00025223       0.00025582
H        2.14768508       1.62374504       5.34246502      -0.00010362      -0.00028771       0.00037744
H        0.39447710       3.13233070       3.19183224       0.00010362       0.00028771      -0.00037744
H       -3.47312140       2.33120448       7.67387898       0.00015992      -0.00016481      -0.00034427
H        6.01528364       2.42487112       0.86041815      -0.00015992       0.00016481       0.00034427
H        4.04793738       4.70924891       5.21135236      -0.00014732      -0.00013961       0.00034658
H       -1.50577508       0.04682669       3.32294464       0.00014732       0.00013961      -0.00034658
H       -2.27886777       1.41175951       6.74603962      -0.00001800       0.00038258      -0.00034453
H        4.82103038       3.34431609       1.78825712       0.00001800      -0.00038258       0.00034453
H        2.85368892       3.78979964       6.13919304       0.00001388       0.00038567       0.00034581
H       -0.31152655       0.96627595       2.39510422      -0.00001388      -0.00038567      -0.00034581
