40
Lattice="5.01609783955488 0.06418601053365 -1.24233189297368 0.0451027566723 5.06119209522725 -0.06365048553754 -4.29893940276549 -0.13740333500168 7.48911351758687" Properties=species:S:1:pos:R:3:forces:R:3 pbc="T T T"
C        1.09900158       4.07030925       1.02679871      -0.00004808      -0.00018023       0.00009205
C       -0.33704048       0.91754468       5.14220025       0.00009770       0.00003574      -0.00015452
C        1.39007261       1.46386038       1.96428531       0.00005065      -0.00001543       0.00002108
C       -0.65006085       3.50858125       4.23523270       0.00004165      -0.00007842      -0.00002623
C        1.43094442      -0.24658950      -0.03162839      -0.00017304       0.00101764      -0.00007713
C       -0.65538261       5.24619647       6.21555592      -0.00037332       0.00058235       0.00034376
C        1.09807028       2.30516323       3.08435106      -0.00014270      -0.00017972       0.00000746
C       -0.34843754       2.67862972       3.10381098       0.00006762      -0.00003060       0.00009693
C        1.17206296       1.03920276      -0.10444725       0.00040881      -0.00072248      -0.00034350
C       -0.39814969       3.96039429       6.29082784      -0.00009513      -0.00090066       0.00036741
C        1.92956672       3.45364191       3.01367768       0.00010439       0.00004757      -0.00004782
C       -1.19919271       1.54191386       3.15327046       0.00000411       0.00027074       0.00010722
N       -2.71447139       1.84641276       6.59126278      -0.00052528      -0.00002288       0.00047668
N        3.48407791       3.14797173      -0.41173839       0.00019823       0.00055150      -0.00034556
N        1.72027202       4.58536811       3.66911208       0.00010979       0.00012470      -0.00026097
N       -0.92464895       0.39124687       2.52635818       0.00014244      -0.00006685      -0.00034144
O        0.46346295       1.53166502       0.92790818      -0.00017149       0.00011596       0.00002160
O        0.30289458       3.46737002       5.25165580       0.00007122      -0.00002623       0.00008356
O        2.30312398       3.77012889       1.73546112       0.00002571      -0.00000926       0.00016532
O       -1.54614717       1.21024070       4.44867575      -0.00004988       0.00003831       0.00004782
H        0.43373802       4.52584087       1.73313501      -0.00002905      -0.00004911      -0.00004114
H        0.31604096       0.45042132       4.43178910      -0.00005039       0.00013678       0.00006891
H        2.39606422       1.76908804       1.55008288       0.00000309      -0.00019875       0.00004962
H       -1.61242716       3.17823677       4.67180676       0.00002520       0.00019849      -0.00005785
H        0.69862317       3.13283657       0.76074853       0.00007893      -0.00006376       0.00006788
H        0.07456044       1.85435111       5.39700921      -0.00008279       0.00015144       0.00008742
H        1.46073766       0.46770816       2.29862760      -0.00000154      -0.00008819       0.00006711
H       -0.75568802       4.50453943       3.90640478       0.00018538       0.00009590      -0.00017021
H       -2.31803950      -0.87715668       6.71669413       0.00006042      -0.00002905      -0.00041652
H        3.10232036       5.88464367      -0.53087838       0.00010799      -0.00027331       0.00015941
H        1.24426102       1.72089246       3.95664668       0.00010824      -0.00000103      -0.00017304
H       -0.48071097       3.27414259       2.23714950      -0.00015709      -0.00001028      -0.00000000
H       -3.21442547       2.71163802       6.64452003      -0.00005425       0.00000309       0.00000694
H        3.99312260       2.28730842      -0.46257370       0.00016429      -0.00017432      -0.00007636
H        2.52047457       5.21090386       3.57643344      -0.00029285      -0.00011493       0.00007173
H       -1.74054503      -0.21536757       2.57638578       0.00014964      -0.00001183       0.00003034
H       -2.19607778       1.70025390       5.73859250       0.00009487       0.00006119      -0.00032113
H        2.96440356       3.28216280       0.44117411       0.00004037      -0.00014167       0.00012058
H        1.42555988       4.44445326       4.61901025      -0.00011930      -0.00001286       0.00008639
H       -0.65163181       0.55161308       1.57374423       0.00002597      -0.00002931       0.00020595
