40
Lattice="5.50938618512525 0.00356098599297 -1.19647258763833 -0.00255040399497 5.40397017933333 0.00361724799286 -4.52487735406853 -0.00799892598421 8.0002173512087" Properties=species:S:1:pos:R:3:forces:R:3 pbc="T T T"
C        1.28300488       4.42604405       0.95738352       0.00015015      -0.00006068      -0.00000283
C       -0.30104650       0.97348869       5.84997903      -0.00015015       0.00006068       0.00000283
C        1.96068319       1.72370125       1.85093780       0.00000566       0.00003780      -0.00027716
C       -0.97872488       3.67583140       4.95642472      -0.00000566      -0.00003780       0.00027716
C        1.50319190      -0.20203465      -0.22689591       0.00014321      -0.00053273       0.00004525
C       -0.52123327       5.60156732       7.03425830      -0.00014321       0.00053273      -0.00004525
C        1.74261876       2.49785005       3.03265893       0.00006094       0.00044634      -0.00004268
C       -0.76066045       2.90168259       3.77470380      -0.00006094      -0.00044634       0.00004268
C        1.23205590       1.10565557      -0.18502698      -0.00007816       0.00052605       0.00003445
C       -0.25009728       4.29387711       6.99238955       0.00007816      -0.00052605      -0.00003445
C        2.01266379       3.80581896       2.99238636      -0.00011159      -0.00060395      -0.00013910
C       -1.03070512       1.59371373       3.81497610       0.00011159       0.00060395       0.00013910
N       -3.00234198       2.06001777       6.93716347       0.00012418      -0.00003831       0.00000489
N        3.98430078       3.33951493      -0.12980114      -0.00012418       0.00003831      -0.00000489
N        1.72166676       4.76680844       3.87175213      -0.00006453       0.00026380       0.00006016
N       -0.73970813       0.63272423       2.93561036       0.00006453      -0.00026380      -0.00006016
O        0.73644217       1.60992827       0.99367542       0.00013164      -0.00014938       0.00003162
O        0.24551621       3.78960420       5.81368703      -0.00013164       0.00014938      -0.00003162
O        2.50749835       4.31199820       1.81418419      -0.00014192      -0.00005142      -0.00011544
O       -1.52553999       1.08753465       4.99317837       0.00014192       0.00005142       0.00011544
H        0.54676857       4.85127240       1.62684298      -0.00009565      -0.00014681      -0.00002571
H        0.43519016       0.54826025       5.18051938       0.00009565       0.00014681       0.00002571
H        2.69672188       2.15035784       1.18215605      -0.00000591      -0.00019720       0.00009950
H       -1.71476322       3.24917480       5.62520644       0.00000591       0.00019720      -0.00009950
H        1.00775160       3.41139405       0.74179237      -0.00013344       0.00002237      -0.00003111
H       -0.02579295       1.98813860       6.06557019       0.00013344      -0.00002237       0.00003111
H        2.23659095       0.70897302       2.06525006       0.00019129      -0.00008176       0.00000437
H       -1.25463227       4.69055961       4.74211241      -0.00019129       0.00008176      -0.00000437
H       -2.58189361      -0.67392813       6.91508334      -0.00010619       0.00008767       0.00010799
H        3.56385220       6.07346068      -0.10772105       0.00010619      -0.00008767      -0.00010799
H        1.30365201       2.03242943       3.89048541       0.00003137       0.00000334      -0.00005014
H       -0.32169361       3.36710336       2.91687737      -0.00003137      -0.00000334       0.00005014
H       -3.64208011       2.84518608       6.90498931       0.00008613       0.00005785       0.00016764
H        4.62403854       2.55434656      -0.09762672      -0.00008613      -0.00005785      -0.00016764
H        2.36112242       5.55218615       3.90505046      -0.00020723       0.00003342      -0.00018486
H       -1.37916387      -0.15265353       2.90231205       0.00020723      -0.00003342       0.00018486
H       -2.55336928       1.78616014       6.06545170      -0.00004242       0.00005476      -0.00017663
H        3.53532806       3.61337249       0.74191054       0.00004242      -0.00005476       0.00017663
H        1.27322676       4.49117907       4.74318209      -0.00003574      -0.00000026       0.00019103
H       -0.29126828       0.90835357       2.06418058       0.00003574       0.00000026      -0.00019103
