40
Lattice="5.70125140274653 0.00358464499292 -1.22868358957475 -0.00270093799467 5.58778894197049 0.00387168999236 -4.68352997075537 -0.00798412798424 8.21170174779126" Properties=species:S:1:pos:R:3:forces:R:3 pbc="T T T"
C        1.32309068       4.60420118       0.98690590      -0.00006685      -0.00022137       0.00013344
C       -0.30807022       0.97918886       5.99998457       0.00006685       0.00022137      -0.00013344
C        2.03323828       1.80999126       1.89480356      -0.00003497      -0.00022523      -0.00003522
C       -1.01821789       3.77339870       5.09208689       0.00003497       0.00022523       0.00003522
C        1.54799276      -0.18066695      -0.19159231      -0.00008690       0.00038078      -0.00022960
C       -0.53297204       5.76405692       7.17848263       0.00008690      -0.00038078       0.00022960
C        1.81031027       2.61109191       3.07054110       0.00011519       0.00022497       0.00008228
C       -0.79528987       2.97229803       3.91634957      -0.00011519      -0.00022497      -0.00008228
C        1.28561209       1.13689243      -0.14982503       0.00025891      -0.00080630       0.00019823
C       -0.27059139       4.44649754       7.13671554      -0.00025891       0.00080630      -0.00019823
C        2.07144637       3.92894921       3.03056883      -0.00028771      -0.00048825       0.00001594
C       -1.05642562       1.65444079       3.95632158       0.00028771       0.00048825      -0.00001594
N       -3.12144353       2.06507650       7.13659596       0.00036021       0.00022626      -0.00020183
N        4.13646442       3.51831349      -0.14970569      -0.00036021      -0.00022626       0.00020183
N        1.79413523       4.86358976       3.95715666      -0.00033553      -0.00001697      -0.00008279
N       -0.77911451       0.71980022       3.02973378       0.00033553       0.00001697       0.00008279
O        0.80369388       1.67643386       1.02356470       0.00023397      -0.00021314       0.00006608
O        0.21132659       3.90695590       5.96332568      -0.00023397       0.00021314      -0.00006608
O        2.55279664       4.47055389       1.85789981      -0.00019180      -0.00022549      -0.00008536
O       -1.53777619       1.11283627       5.12899068       0.00019180       0.00022549       0.00008536
H        0.57890381       5.03004342       1.65568864       0.00004859      -0.00001028      -0.00004397
H        0.43611701       0.55334653       5.33120166      -0.00004859       0.00001028       0.00004397
H        2.77706060       2.23743072       1.22663786       0.00000411       0.00002391      -0.00000720
H       -1.76203985       3.34595922       5.76025256      -0.00000411      -0.00002391       0.00000720
H        1.04273413       3.58720358       0.75136366       0.00020106       0.00003831      -0.00001671
H       -0.02771340       1.99618636       6.23552683      -0.00020106      -0.00003831       0.00001671
H        2.31450552       0.79292864       2.12896354      -0.00018898       0.00003831       0.00001466
H       -1.29948475       4.79046130       4.85792686       0.00018898      -0.00003831      -0.00001466
H       -2.70907467      -0.64310084       7.14284752      -0.00017535      -0.00015581      -0.00022446
H        3.72409535       6.22649068      -0.15595730       0.00017535       0.00015581       0.00022446
H        1.38434526       2.15503007       3.94720555       0.00014681      -0.00018846       0.00027151
H       -0.36932476       3.42836004       3.03968517      -0.00014681       0.00018846      -0.00027151
H       -3.73549412       2.87169567       7.10194823       0.00006505      -0.00018769      -0.00013113
H        4.75051462       2.71169428      -0.11505769      -0.00006505       0.00018769       0.00013113
H        2.40752138       5.67066552       3.99295453      -0.00001774      -0.00011621       0.00013395
H       -1.39250074      -0.08727559       2.99393591       0.00001774       0.00011621      -0.00013395
H       -2.67297799       1.77584524       6.26725749       0.00013267      -0.00014835       0.00017329
H        3.68799884       3.80754470       0.71963266      -0.00013267       0.00014835      -0.00017329
H        1.34598202       4.57269626       4.82609914      -0.00017201      -0.00016661      -0.00009667
H       -0.33096146       1.01069369       2.16079147       0.00017201       0.00016661       0.00009667
